4
-39.4337527623
C  1.00337462684574063587 0.03021461715223070638 0.19243312538623871810
H  2.03397592941464422367 -0.08299407568599309615 -0.15389819368504348285
H  0.48808072018841708317 0.98664214451134468753 0.07147305037658185922
H  0.48805872355119644945 -0.81300268597758285072 0.65971201792222278204
