# ORCA Input File generated by Ophysia
! PBE0 D4 def2-TZVPP SP RIJCOSX def2/J TIGHTSCF
* xyz 0 1
C           1.07645792862865     -0.09398105492255     -0.05363943410846
O           2.48337202103057     -0.06548996827990     -0.04295130275849
H           0.64864234053893     -0.86269746036581      0.62247608630282
H           0.64926292329814     -0.25738163396117     -1.06452063854623
H           0.72043748195184      0.88718806599347      0.29827157457322
H           2.80455730455186     -0.92195794846405     -0.35195628546286
*