# ORCA Input File generated by Ophysia
! PBE0 D4 def2-TZVP OPT FREQ GOAT
! TightSCF
* xyz 0 1
C          1.06479       -0.03892       -0.07164
C          2.57908       -0.04040       -0.06455
O          3.06076       -0.98174        0.88305
H          0.67999        0.67516       -0.80501
H          0.67279        0.22479        0.91613
H          0.67931       -1.03527       -0.31188
H          2.97050        0.94869        0.19245
H          2.96607       -0.31926       -1.04896
H          2.72118       -0.71960        1.75568
*