# ORCA Input File generated by Ophysia
! PBE0 D4 def2-TZVPP SP RIJCOSX def2/J TIGHTSCF
* xyz 1 1
C           1.15421063334375      0.29605650270098      0.01040612344702
H           2.19600325101679     -0.06424275714568     -0.06599144428109
H           0.63331104604845      0.67480257369857     -0.88749768658920
H           0.63332506959101      0.27762368074614      0.98472300742327
*