7
Coordinates from ORCA-job molecule E -78.730368163374
  C       1.106640      0.122290     -0.061630
  C       2.575530     -0.082700     -0.019300
  H       0.580400      0.096340     -1.008600
  H       0.580030      0.463680      0.821640
  H       2.880070     -0.809980     -0.777530
  H       2.878500     -0.460400      0.960740
  H       3.094560      0.860760     -0.208850
7
Coordinates from ORCA-job molecule E -78.735959295932
  C       1.142405      0.175090     -0.071368
  C       2.559916     -0.093514     -0.014145
  H       0.589430      0.081749     -1.019796
  H       0.579939      0.424783      0.842579
  H       2.859968     -0.815659     -0.795065
  H       2.864577     -0.446850      0.987597
  H       3.099495      0.864391     -0.223332
7
Coordinates from ORCA-job molecule E -78.737790556193
  C       1.165846      0.127560     -0.061733
  C       2.533775     -0.139853     -0.003590
  H       0.611536      0.108647     -1.030121
  H       0.601204      0.467341      0.839042
  H       2.874500     -0.807993     -0.828576
  H       2.879040     -0.435821      1.012906
  H       3.029829      0.870108     -0.221458
7
Coordinates from ORCA-job molecule E -78.739347318975
  C       1.162977      0.143198     -0.064357
  C       2.534615     -0.157102      0.000351
  H       0.607274      0.119774     -1.021722
  H       0.592752      0.460913      0.830079
  H       2.887924     -0.805146     -0.827358
  H       2.893785     -0.425755      1.012536
  H       3.016403      0.854108     -0.223060
7
Coordinates from ORCA-job molecule E -78.740387157544
  C       1.163502      0.144391     -0.063947
  C       2.530368     -0.196641      0.008997
  H       0.612253      0.143973     -1.016580
  H       0.593649      0.476466      0.817253
  H       2.915216     -0.799196     -0.830564
  H       2.921632     -0.416844      1.013887
  H       2.959110      0.837840     -0.222576
7
Coordinates from ORCA-job molecule E -78.740943086761
  C       1.168385      0.140233     -0.062958
  C       2.525752     -0.229218      0.015418
  H       0.623964      0.160591     -1.018050
  H       0.605566      0.499264      0.810825
  H       2.936929     -0.796555     -0.833152
  H       2.941539     -0.418023      1.014690
  H       2.893595      0.833698     -0.220302
7
Coordinates from ORCA-job molecule E -78.742065841475
  C       1.185005      0.133070     -0.061961
  C       2.516896     -0.291733      0.026029
  H       0.659048      0.189353     -1.025774
  H       0.647801      0.551413      0.801335
  H       2.977852     -0.793786     -0.834327
  H       2.975930     -0.428266      1.012854
  H       2.733198      0.829939     -0.211685
7
Coordinates from ORCA-job molecule E -78.743469136976
  C       1.212240      0.134754     -0.063275
  C       2.509147     -0.350316      0.035280
  H       0.710244      0.222920     -1.037982
  H       0.705936      0.596966      0.796821
  H       3.014243     -0.797405     -0.828662
  H       3.007150     -0.437342      1.008191
  H       2.536770      0.820413     -0.203903
7
Coordinates from ORCA-job molecule E -78.743990923765
  C       1.237748      0.150092     -0.066955
  C       2.506828     -0.378538      0.039935
  H       0.748529      0.242635     -1.048980
  H       0.744101      0.611203      0.802350
  H       3.031265     -0.813175     -0.821239
  H       3.022921     -0.446725      1.007165
  H       2.404338      0.824499     -0.205805
7
Coordinates from ORCA-job molecule E -78.744267203992
  C       1.237793      0.171879     -0.071772
  C       2.515123     -0.343113      0.033028
  H       0.733893      0.213217     -1.053366
  H       0.727062      0.569313      0.822629
  H       3.010007     -0.848421     -0.815970
  H       3.003827     -0.467977      1.015769
  H       2.468025      0.895091     -0.223850
7
Coordinates from ORCA-job molecule E -78.744985094364
  C       1.240856      0.163368     -0.071121
  C       2.512582     -0.367838      0.037077
  H       0.736237      0.215487     -1.047467
  H       0.739773      0.598108      0.806669
  H       3.020466     -0.825715     -0.823631
  H       3.008952     -0.463449      1.013039
  H       2.436864      0.870029     -0.208097
7
Coordinates from ORCA-job molecule E -78.745167197009
  C       1.249426      0.166707     -0.070765
  C       2.512141     -0.383632      0.041599
  H       0.749087      0.231438     -1.047034
  H       0.742775      0.593208      0.806179
  H       3.019228     -0.828670     -0.824139
  H       3.014529     -0.453571      1.015106
  H       2.408544      0.864508     -0.214476
7
Coordinates from ORCA-job molecule E -78.745298996164
  C       1.258663      0.173139     -0.073255
  C       2.513388     -0.397220      0.043651
  H       0.751207      0.223867     -1.045692
  H       0.752356      0.601766      0.801781
  H       3.020564     -0.826064     -0.830009
  H       3.012950     -0.458791      1.018886
  H       2.386602      0.873294     -0.208893
7
Coordinates from ORCA-job molecule E -78.745354151807
  C       1.261318      0.177026     -0.073576
  C       2.514714     -0.399335      0.044816
  H       0.752144      0.224128     -1.045520
  H       0.748712      0.593963      0.803746
  H       3.016426     -0.831561     -0.831050
  H       3.012437     -0.458208      1.021778
  H       2.389979      0.883978     -0.213724
7
Coordinates from ORCA-job molecule E -78.745364254545
  C       1.264408      0.179979     -0.074185
  C       2.514779     -0.401667      0.045241
  H       0.754938      0.224168     -1.046507
  H       0.751486      0.594543      0.804476
  H       3.017406     -0.834454     -0.830477
  H       3.013596     -0.460938      1.022194
  H       2.379115      0.888358     -0.214273
7
Coordinates from ORCA-job molecule E -78.745366385457
  C       1.264615      0.180215     -0.074252
  C       2.514536     -0.402155      0.045277
  H       0.754856      0.223432     -1.046455
  H       0.751843      0.595383      0.804177
  H       3.018030     -0.834676     -0.830035
  H       3.014010     -0.462316      1.021814
  H       2.377840      0.890107     -0.214056
7
Coordinates from ORCA-job molecule E -78.745367649200
  C       1.264819      0.180523     -0.074164
  C       2.514061     -0.403126      0.045551
  H       0.755077      0.223860     -1.046295
  H       0.751558      0.595678      0.803902
  H       3.018802     -0.835017     -0.829297
  H       3.015057     -0.463060      1.021266
  H       2.376356      0.891132     -0.214493
7
Coordinates from ORCA-job molecule E -78.745367850756
  C       1.264762      0.180674     -0.074146
  C       2.513827     -0.403325      0.045625
  H       0.754889      0.223972     -1.046206
  H       0.751254      0.595738      0.803812
  H       3.019123     -0.834905     -0.829098
  H       3.015399     -0.463148      1.021083
  H       2.376477      0.890984     -0.214602
7
Coordinates from ORCA-job molecule E -78.745367880603
  C       1.264795      0.180831     -0.074169
  C       2.513712     -0.403442      0.045670
  H       0.754840      0.224033     -1.046200
  H       0.751178      0.595707      0.803822
  H       3.019238     -0.834846     -0.829037
  H       3.015522     -0.463122      1.021042
  H       2.376446      0.890829     -0.214657
