# ORCA Input File generated by Ophysia
! B3LYP D4 def2-SVP OPT RIJCOSX FREQ def2/J TIGHTOPT
* xyz 1 1
C          1.10664        0.12229       -0.06163
C          2.57553       -0.08270       -0.01930
H          0.58040        0.09634       -1.00860
H          0.58003        0.46368        0.82164
H          2.88007       -0.80998       -0.77753
H          2.87850       -0.46040        0.96074
H          3.09456        0.86076       -0.20885
*