9
Coordinates from ORCA-job molecule E -154.834321956751
  C           1.05723444523931      0.01835346102813     -0.06794503984259
  C           2.58088919085115     -0.02265508842874     -0.08262544558993
  O           3.10022985426143     -0.87110093102652     -1.08626430077861
  H           0.68356132582328      0.73279775031071      0.68442704662740
  H           0.63570168245144     -0.97254444008700      0.17801386830817
  H           0.66966292443936      0.31546655224219     -1.05553351688892
  H           2.96004585811041     -0.30160277639795      0.92343729792507
  H           2.98138412055732      0.98209275359192     -0.29850889888762
  H           2.78948059826628     -1.76881728123273     -0.90802101087296
