3
Coordinates from ORCA-job molecule E -76.377459703131
  O       1.059150      0.050930      0.053940
  H       2.027040      0.067750      0.010660
  H       0.780300      0.387260     -0.810980
3
Coordinates from ORCA-job molecule E -76.377622844047
  O       1.062193      0.052488      0.049932
  H       2.020983      0.068133      0.009676
  H       0.783314      0.385319     -0.805988
3
Coordinates from ORCA-job molecule E -76.377632815585
  O       1.063217      0.053013      0.048582
  H       2.021963      0.067488      0.011334
  H       0.781310      0.385439     -0.806296
3
Coordinates from ORCA-job molecule E -76.377635919507
  O       1.064138      0.053485      0.047368
  H       2.022977      0.066874      0.012912
  H       0.779375      0.385581     -0.806661
3
Coordinates from ORCA-job molecule E -76.377635923803
  O       1.064146      0.053490      0.047358
  H       2.022984      0.066869      0.012925
  H       0.779360      0.385581     -0.806663
