7
Coordinates from ORCA-job molecule E -78.745367880603
  C           1.26479452857203      0.18083082575926     -0.07416943347980
  C           2.51371228939752     -0.40344212525319      0.04566984898380
  H           0.75484011410809      0.22403301308340     -1.04620027672991
  H           0.75117750057977      0.59570695793502      0.80382189431612
  H           3.01923756142852     -0.83484625587859     -0.82903742680140
  H           3.01552236509535     -0.46312181874325      1.02104212737554
  H           2.37644564081872      0.89082940309734     -0.21465673366435
