# ORCA Input File generated by Ophysia
! B3LYP D4 def2-SVP OPT RIJCOSX FREQ def2/J TIGHTOPT
* xyz 0 1
C          1.07187        0.01568       -0.07236
C          2.58616        0.00870       -0.07427
O          3.06784       -0.87984       -1.07155
H          0.68707        0.70422        0.68504
H          0.67987       -0.98631        0.13073
H          0.68639        0.31613       -1.05224
H          2.97758       -0.30804        0.89734
H          2.97315        1.00826       -0.29269
H          2.72826       -1.76681       -0.86302
*